Version 4
SHEET 1 880 680
SYMBOL Opamps\\opamp2 192 48 R0
SYMATTR InstName U1
SYMATTR Value LM324
