Version 4
SHEET 1 1412 680
WIRE 224 -64 144 -64
WIRE 336 -64 304 -64
WIRE 688 -64 640 -64
WIRE 1024 -64 752 -64
WIRE 864 0 832 0
WIRE 1024 0 1024 -64
WIRE 1024 0 928 0
WIRE 240 80 240 48
WIRE 832 80 832 0
WIRE 864 80 832 80
WIRE 1024 80 1024 0
WIRE 1024 80 944 80
WIRE -144 96 -192 96
WIRE 0 96 -64 96
WIRE 144 96 144 -64
WIRE 144 96 64 96
WIRE 208 96 144 96
WIRE 336 112 336 -64
WIRE 336 112 272 112
WIRE 464 112 336 112
WIRE 640 112 640 -64
WIRE 640 112 544 112
WIRE 688 112 640 112
WIRE 832 112 832 80
WIRE 832 112 752 112
WIRE 208 128 176 128
WIRE -400 144 -400 96
WIRE -192 144 -192 96
WIRE 640 144 640 112
WIRE 912 160 912 144
WIRE 832 176 832 112
WIRE 880 176 832 176
WIRE 240 192 240 144
WIRE 1024 192 1024 80
WIRE 1024 192 944 192
WIRE 128 208 128 176
WIRE 880 208 848 208
WIRE 912 272 912 224
WIRE -400 288 -400 224
WIRE -192 288 -192 224
WIRE 128 304 128 288
WIRE 176 304 176 128
WIRE 176 304 128 304
WIRE 640 304 640 224
WIRE 640 304 176 304
WIRE 848 304 848 208
WIRE 848 304 640 304
WIRE 128 336 128 304
WIRE 176 336 176 304
WIRE 224 336 176 336
WIRE 304 336 224 336
WIRE 272 400 224 400
WIRE 304 400 272 400
WIRE 128 432 128 416
WIRE 272 432 272 400
WIRE 272 432 128 432
WIRE 128 464 128 432
FLAG -400 96 vcc
FLAG -400 288 0
FLAG -192 288 0
FLAG 128 176 vcc
FLAG 128 464 0
FLAG 240 48 vcc
FLAG 240 192 0
FLAG 912 144 vcc
FLAG 912 272 0
SYMBOL Opamps\\opamp2 240 48 R0
SYMATTR InstName U1
SYMATTR Value LM324
SYMBOL voltage -192 128 R0
WINDOW 123 24 124 Left 2
WINDOW 39 0 0 Left 0
SYMATTR Value2 AC .002
SYMATTR InstName V1
SYMATTR Value ""
SYMBOL voltage -400 128 R0
WINDOW 123 0 0 Left 0
WINDOW 39 0 0 Left 0
SYMATTR InstName V2
SYMATTR Value 5
SYMBOL res -48 80 R90
WINDOW 0 0 56 VBottom 2
WINDOW 3 32 56 VTop 2
SYMATTR InstName R1
SYMATTR Value 10k
SYMBOL cap 64 80 R90
WINDOW 0 0 32 VBottom 2
WINDOW 3 32 32 VTop 2
SYMATTR InstName C1
SYMATTR Value 10n
SYMBOL res 320 -80 R90
WINDOW 0 0 56 VBottom 2
WINDOW 3 32 56 VTop 2
SYMATTR InstName R2
SYMATTR Value 62k
SYMBOL res 144 304 R180
WINDOW 0 36 76 Left 2
WINDOW 3 36 40 Left 2
SYMATTR InstName R3
SYMATTR Value 1k
SYMBOL res 144 432 R180
WINDOW 0 36 76 Left 2
WINDOW 3 36 40 Left 2
SYMATTR InstName R4
SYMATTR Value 1k
SYMBOL cap 208 336 R0
SYMATTR InstName C2
SYMATTR Value 1µ2
SYMBOL cap 288 336 R0
SYMATTR InstName C3
SYMATTR Value 150n
SYMBOL res 560 96 R90
WINDOW 0 0 56 VBottom 2
WINDOW 3 32 56 VTop 2
SYMATTR InstName R5
SYMATTR Value {var1}
SYMBOL res 656 240 R180
WINDOW 0 36 76 Left 2
WINDOW 3 36 40 Left 2
SYMATTR InstName R6
SYMATTR Value 1k
SYMBOL cap 752 96 R90
WINDOW 0 0 32 VBottom 2
WINDOW 3 32 32 VTop 2
SYMATTR InstName C4
SYMATTR Value 1n
SYMBOL cap 752 -80 R90
WINDOW 0 0 32 VBottom 2
WINDOW 3 32 32 VTop 2
SYMATTR InstName C5
SYMATTR Value 1n
SYMBOL cap 928 -16 R90
WINDOW 0 0 32 VBottom 2
WINDOW 3 32 32 VTop 2
SYMATTR InstName C6
SYMATTR Value 12p
SYMBOL res 960 64 R90
WINDOW 0 0 56 VBottom 2
WINDOW 3 32 56 VTop 2
SYMATTR InstName R7
SYMATTR Value {var2}
SYMBOL Opamps\\opamp2 912 128 R0
SYMATTR InstName U2
SYMATTR Value LM324
TEXT 384 40 Left 2 !.lib LM324.ti.lib
TEXT -192 -136 Left 2 !.tran .01
TEXT -472 -24 Left 2 !;ac dec 1001 10000 100000
TEXT 1016 -312 Left 2 !.step param Rx list 1 2
TEXT 1008 -256 Left 2 !.param var2 table(Rx,1,18k,2,75k)
TEXT 1008 -208 Left 2 !.param var1 table(Rx,1,2k2,2,6k2)
