Version 4
SHEET 1 880 680
WIRE -400 144 -400 96
WIRE -400 288 -400 224
FLAG -400 96 vcc
FLAG -400 288 0
SYMBOL Opamps\\opamp2 192 48 R0
SYMATTR InstName U1
SYMATTR Value LM324
SYMBOL voltage -192 128 R0
WINDOW 123 0 0 Left 0
WINDOW 39 0 0 Left 0
SYMATTR InstName V1
SYMATTR Value SINE(0 .002 40000)
SYMBOL voltage -400 128 R0
WINDOW 123 0 0 Left 0
WINDOW 39 0 0 Left 0
SYMATTR InstName V2
SYMATTR Value 5
TEXT 384 40 Left 2 !.lib LM324.ti.lib
