Version 4
SHEET 1 880 680
WIRE 224 -64 144 -64
WIRE 336 -64 304 -64
WIRE 240 80 240 48
WIRE -144 96 -192 96
WIRE 0 96 -64 96
WIRE 144 96 144 -64
WIRE 144 96 64 96
WIRE 208 96 144 96
WIRE 336 112 336 -64
WIRE 336 112 272 112
WIRE 208 128 176 128
WIRE -400 144 -400 96
WIRE -192 144 -192 96
WIRE 240 192 240 144
WIRE 128 208 128 176
WIRE -400 288 -400 224
WIRE -192 288 -192 224
WIRE 128 304 128 288
WIRE 176 304 176 128
WIRE 176 304 128 304
WIRE 128 336 128 304
WIRE 176 336 176 304
WIRE 224 336 176 336
WIRE 304 336 224 336
WIRE 272 400 224 400
WIRE 304 400 272 400
WIRE 128 432 128 416
WIRE 272 432 272 400
WIRE 272 432 128 432
WIRE 128 464 128 432
FLAG -400 96 vcc
FLAG -400 288 0
FLAG -192 288 0
FLAG 128 176 vcc
FLAG 128 464 0
FLAG 240 48 vcc
FLAG 240 192 0
SYMBOL Opamps\\opamp2 240 48 R0
SYMATTR InstName U1
SYMATTR Value LM324
SYMBOL voltage -192 128 R0
WINDOW 123 0 0 Left 0
WINDOW 39 0 0 Left 0
SYMATTR InstName V1
SYMATTR Value SINE(0 .002 40000)
SYMBOL voltage -400 128 R0
WINDOW 123 0 0 Left 0
WINDOW 39 0 0 Left 0
SYMATTR InstName V2
SYMATTR Value 5
SYMBOL res -48 80 R90
WINDOW 0 0 56 VBottom 2
WINDOW 3 32 56 VTop 2
SYMATTR InstName R1
SYMATTR Value 10k
SYMBOL cap 64 80 R90
WINDOW 0 0 32 VBottom 2
WINDOW 3 32 32 VTop 2
SYMATTR InstName C1
SYMATTR Value 10n
SYMBOL res 320 -80 R90
WINDOW 0 0 56 VBottom 2
WINDOW 3 32 56 VTop 2
SYMATTR InstName R2
SYMATTR Value 62k
SYMBOL res 144 304 R180
WINDOW 0 36 76 Left 2
WINDOW 3 36 40 Left 2
SYMATTR InstName R3
SYMATTR Value 1k
SYMBOL res 144 432 R180
WINDOW 0 36 76 Left 2
WINDOW 3 36 40 Left 2
SYMATTR InstName R4
SYMATTR Value 1k
SYMBOL cap 208 336 R0
SYMATTR InstName C2
SYMATTR Value 1µ2
SYMBOL cap 288 336 R0
SYMATTR InstName C3
SYMATTR Value 150n
TEXT 384 40 Left 2 !.lib LM324.ti.lib
TEXT -192 -136 Left 2 !.tran .01
