Version 4
SHEET 1 2308 680
WIRE 2128 -160 2048 -160
WIRE 2048 -128 2048 -160
WIRE 224 -64 144 -64
WIRE 336 -64 304 -64
WIRE 688 -64 640 -64
WIRE 1024 -64 752 -64
WIRE 2048 -16 2048 -48
WIRE 2064 -16 2048 -16
WIRE 864 0 832 0
WIRE 1024 0 1024 -64
WIRE 1024 0 928 0
WIRE 2064 0 2064 -16
WIRE 240 80 240 48
WIRE 832 80 832 0
WIRE 864 80 832 80
WIRE 1024 80 1024 0
WIRE 1024 80 944 80
WIRE -144 96 -192 96
WIRE 0 96 -64 96
WIRE 144 96 144 -64
WIRE 144 96 64 96
WIRE 208 96 144 96
WIRE 336 112 336 -64
WIRE 336 112 272 112
WIRE 464 112 336 112
WIRE 640 112 640 -64
WIRE 640 112 544 112
WIRE 688 112 640 112
WIRE 832 112 832 80
WIRE 832 112 752 112
WIRE 1760 112 1760 80
WIRE 208 128 176 128
WIRE -400 144 -400 96
WIRE -240 144 -240 128
WIRE -192 144 -192 96
WIRE -192 144 -240 144
WIRE 640 144 640 112
WIRE 912 160 912 144
WIRE 832 176 832 112
WIRE 880 176 832 176
WIRE 240 192 240 144
WIRE 1024 192 1024 80
WIRE 1024 192 944 192
WIRE 1056 192 1024 192
WIRE 1136 192 1120 192
WIRE 1344 192 1200 192
WIRE 1424 192 1344 192
WIRE 128 208 128 176
WIRE 880 208 848 208
WIRE 1344 224 1344 192
WIRE 1424 240 1424 192
WIRE 1760 240 1760 192
WIRE 912 272 912 224
WIRE -400 288 -400 224
WIRE 128 304 128 288
WIRE 176 304 176 128
WIRE 176 304 128 304
WIRE 640 304 640 224
WIRE 640 304 176 304
WIRE 848 304 848 208
WIRE 848 304 640 304
WIRE 1760 304 1712 304
WIRE 1760 320 1760 304
WIRE 128 336 128 304
WIRE 176 336 176 304
WIRE 224 336 176 336
WIRE 304 336 224 336
WIRE 1344 352 1344 304
WIRE 1424 352 1424 304
WIRE 1424 352 1344 352
WIRE 272 400 224 400
WIRE 304 400 272 400
WIRE 1424 416 1424 352
WIRE 128 432 128 416
WIRE 272 432 272 400
WIRE 272 432 128 432
WIRE 1760 432 1760 400
WIRE 128 464 128 432
FLAG -400 96 vcc
FLAG -400 288 0
FLAG 128 176 vcc
FLAG 128 464 0
FLAG 240 48 vcc
FLAG 240 192 0
FLAG 912 144 vcc
FLAG 912 272 0
FLAG 1424 416 0
FLAG 1760 240 0
FLAG 1760 80 exp1
FLAG 1712 304 sin1
FLAG 2128 -160 out
FLAG 2064 0 0
FLAG 1760 432 0
FLAG -240 128 out
SYMBOL Opamps\\opamp2 240 48 R0
SYMATTR InstName U1
SYMATTR Value LM324
SYMBOL voltage -400 128 R0
WINDOW 123 0 0 Left 0
WINDOW 39 0 0 Left 0
SYMATTR InstName V2
SYMATTR Value 5
SYMBOL res -48 80 R90
WINDOW 0 0 56 VBottom 2
WINDOW 3 32 56 VTop 2
SYMATTR InstName R1
SYMATTR Value 10k
SYMBOL cap 64 80 R90
WINDOW 0 0 32 VBottom 2
WINDOW 3 32 32 VTop 2
SYMATTR InstName C1
SYMATTR Value 10n
SYMBOL res 320 -80 R90
WINDOW 0 0 56 VBottom 2
WINDOW 3 32 56 VTop 2
SYMATTR InstName R2
SYMATTR Value 62k
SYMBOL res 144 304 R180
WINDOW 0 36 76 Left 2
WINDOW 3 36 40 Left 2
SYMATTR InstName R3
SYMATTR Value 1k
SYMBOL res 144 432 R180
WINDOW 0 36 76 Left 2
WINDOW 3 36 40 Left 2
SYMATTR InstName R4
SYMATTR Value 1k
SYMBOL cap 208 336 R0
SYMATTR InstName C2
SYMATTR Value 1µ2
SYMBOL cap 288 336 R0
SYMATTR InstName C3
SYMATTR Value 150n
SYMBOL res 560 96 R90
WINDOW 0 0 56 VBottom 2
WINDOW 3 32 56 VTop 2
SYMATTR InstName R5
SYMATTR Value 2k2
SYMBOL res 656 240 R180
WINDOW 0 36 76 Left 2
WINDOW 3 36 40 Left 2
SYMATTR InstName R6
SYMATTR Value 1k
SYMBOL cap 752 96 R90
WINDOW 0 0 32 VBottom 2
WINDOW 3 32 32 VTop 2
SYMATTR InstName C4
SYMATTR Value 1n
SYMBOL cap 752 -80 R90
WINDOW 0 0 32 VBottom 2
WINDOW 3 32 32 VTop 2
SYMATTR InstName C5
SYMATTR Value 1n
SYMBOL cap 928 -16 R90
WINDOW 0 0 32 VBottom 2
WINDOW 3 32 32 VTop 2
SYMATTR InstName C6
SYMATTR Value 12p
SYMBOL res 960 64 R90
WINDOW 0 0 56 VBottom 2
WINDOW 3 32 56 VTop 2
SYMATTR InstName R7
SYMATTR Value 18k
SYMBOL Opamps\\opamp2 912 128 R0
SYMATTR InstName U2
SYMATTR Value LM324
SYMBOL res 1360 320 R180
WINDOW 0 36 76 Left 2
WINDOW 3 36 40 Left 2
SYMATTR InstName R8
SYMATTR Value 1k
SYMBOL cap 1408 240 R0
SYMATTR InstName C7
SYMATTR Value 100n
SYMBOL diode 1136 208 R270
WINDOW 0 32 32 VTop 2
WINDOW 3 0 32 VBottom 2
SYMATTR InstName D1
SYMATTR Value 1N914
SYMBOL cap 1120 176 R90
WINDOW 0 0 32 VBottom 2
WINDOW 3 32 32 VTop 2
SYMATTR InstName C8
SYMATTR Value 100µ
SYMBOL voltage 1760 96 R0
WINDOW 123 0 0 Left 0
WINDOW 39 0 0 Left 0
SYMATTR InstName V3
SYMATTR Value EXP(0 2 0 .0002 0.1m .0002)
SYMBOL voltage 1760 304 R0
WINDOW 123 0 0 Left 0
WINDOW 39 0 0 Left 0
SYMATTR InstName V4
SYMATTR Value SINE(0 .02 40000 0 0 0 8)
SYMBOL bv 2048 -144 R0
SYMATTR InstName B1
SYMATTR Value V=V(exp1)*V(sin1)
TEXT 384 40 Left 2 !.lib LM324.ti.lib
TEXT -192 -136 Left 2 !.tran .001
TEXT -472 -24 Left 2 !;ac dec 1001 10000 80000
TEXT 1016 -312 Left 2 !.step param Rx list 1 2
TEXT 1008 -256 Left 2 !.param var2 table(Rx,1,18k,2,75k)
TEXT 1008 -208 Left 2 !.param var1 table(Rx,1,2k2,2,6k2)
TEXT -888 56 Left 2 !.function mod(x,y) { (x/y)-int(x/y) }
