Version 4
SHEET 1 3408 680
WIRE -80 -1168 -128 -1168
WIRE -128 -1136 -128 -1168
WIRE 240 -1088 176 -1088
WIRE 416 -1088 320 -1088
WIRE -80 -1040 -80 -1168
WIRE -128 -992 -128 -1056
WIRE 288 -944 288 -976
WIRE -128 -928 -208 -928
WIRE -64 -928 -128 -928
WIRE 64 -928 16 -928
WIRE 176 -928 176 -1088
WIRE 176 -928 128 -928
WIRE 256 -928 176 -928
WIRE 416 -912 416 -1088
WIRE 416 -912 320 -912
WIRE 464 -912 416 -912
WIRE 608 -912 528 -912
WIRE 736 -912 672 -912
WIRE 880 -912 736 -912
WIRE 256 -896 192 -896
WIRE 880 -896 880 -912
WIRE 288 -848 288 -880
WIRE 736 -784 736 -832
WIRE 880 -784 880 -832
WIRE 880 -784 736 -784
WIRE 912 -784 880 -784
WIRE -752 -752 -800 -752
WIRE -416 -752 -688 -752
WIRE 192 -704 192 -896
WIRE 288 -704 192 -704
WIRE -576 -688 -608 -688
WIRE -416 -688 -416 -752
WIRE -416 -688 -512 -688
WIRE 912 -688 912 -784
WIRE 288 -656 288 -704
WIRE -608 -608 -608 -688
WIRE -576 -608 -608 -608
WIRE -416 -608 -416 -688
WIRE -416 -608 -496 -608
WIRE -800 -576 -800 -752
WIRE -800 -576 -880 -576
WIRE -752 -576 -800 -576
WIRE -608 -576 -608 -608
WIRE -608 -576 -688 -576
WIRE -800 -544 -800 -576
WIRE -528 -528 -528 -544
WIRE -608 -512 -608 -576
WIRE -560 -512 -608 -512
WIRE -416 -496 -416 -608
WIRE -416 -496 -496 -496
WIRE 192 -496 192 -704
WIRE 288 -496 288 -592
WIRE -560 -480 -592 -480
WIRE -528 -416 -528 -464
WIRE -592 -384 -592 -480
WIRE -1088 -192 -1168 -192
WIRE -1168 -160 -1168 -192
WIRE 208 -80 112 -80
WIRE 352 -80 288 -80
WIRE -1168 -48 -1168 -80
WIRE -1152 -48 -1168 -48
WIRE -1152 -32 -1152 -48
WIRE 512 -32 464 -32
WIRE 640 -32 592 -32
WIRE 688 -32 640 -32
WIRE 816 -32 768 -32
WIRE 464 -16 464 -32
WIRE 240 80 240 48
WIRE 640 80 640 -32
WIRE 688 80 640 80
WIRE -144 96 -192 96
WIRE 0 96 -64 96
WIRE 112 96 112 -80
WIRE 112 96 64 96
WIRE 208 96 112 96
WIRE 816 96 816 -32
WIRE 816 96 752 96
WIRE 848 96 816 96
WIRE 1008 96 928 96
WIRE -1152 112 -1152 80
WIRE 352 112 352 -80
WIRE 352 112 272 112
WIRE 416 112 352 112
WIRE 560 112 480 112
WIRE 688 112 560 112
WIRE 208 128 192 128
WIRE -400 144 -400 96
WIRE -192 144 -192 96
WIRE 1008 144 1008 96
WIRE 560 160 560 112
WIRE 240 192 240 144
WIRE -1152 240 -1152 192
WIRE 128 256 128 240
WIRE 192 256 192 128
WIRE 192 256 128 256
WIRE 1008 256 1008 208
WIRE -400 288 -400 224
WIRE -1152 304 -1200 304
WIRE -1152 320 -1152 304
WIRE -1152 432 -1152 400
FLAG -400 96 vcc
FLAG -400 288 0
FLAG 240 48 vcc
FLAG 240 192 0
FLAG -528 -544 vcc
FLAG -528 -416 0
FLAG 912 -688 0
FLAG -1152 240 0
FLAG -1152 80 exp1
FLAG -1200 304 sin1
FLAG -1088 -192 piezo_rx
FLAG -1152 -32 0
FLAG -1152 432 0
FLAG 192 -496 0
FLAG 288 -496 0
FLAG 288 -976 vcc
FLAG 288 -848 0
FLAG -80 -1040 0
FLAG -192 144 0
FLAG 560 240 0
FLAG 464 -16 0
FLAG 720 64 vcc
FLAG 720 128 0
FLAG 1008 256 0
FLAG -176 480 0
FLAG -176 400 ac_test
FLAG -592 -384 0
FLAG 128 240 piezo_rx
SYMBOL voltage -400 128 R0
WINDOW 123 0 0 Left 0
WINDOW 39 0 0 Left 0
SYMATTR InstName V2
SYMATTR Value 5
SYMBOL res -48 80 R90
WINDOW 0 0 56 VBottom 2
WINDOW 3 32 56 VTop 2
SYMATTR InstName R1
SYMATTR Value 10k
SYMBOL cap -688 -592 R90
WINDOW 0 0 32 VBottom 2
WINDOW 3 32 32 VTop 2
SYMATTR InstName C4
SYMATTR Value 1n
SYMBOL cap -688 -768 R90
WINDOW 0 0 32 VBottom 2
WINDOW 3 32 32 VTop 2
SYMATTR InstName C5
SYMATTR Value 1n
SYMBOL cap -512 -704 R90
WINDOW 0 0 32 VBottom 2
WINDOW 3 32 32 VTop 2
SYMATTR InstName C6
SYMATTR Value 12p
SYMBOL res -480 -624 R90
WINDOW 0 0 56 VBottom 2
WINDOW 3 32 56 VTop 2
SYMATTR InstName R7
SYMATTR Value 18k
SYMBOL Opamps\\opamp2 -528 -560 R0
SYMATTR InstName U2
SYMATTR Value LM324
SYMBOL voltage -1152 96 R0
WINDOW 123 0 0 Left 0
WINDOW 39 0 0 Left 0
SYMATTR InstName V3
SYMATTR Value EXP(0 2 0 .0001 0.1m .0001)
SYMBOL voltage -1152 304 R0
WINDOW 123 0 0 Left 0
WINDOW 39 0 0 Left 0
SYMATTR InstName V4
SYMATTR Value SINE(0 350m 40000 0 0 0 40)
SYMBOL bv -1168 -176 R0
SYMATTR InstName B1
SYMATTR Value V=V(exp1)*V(sin1)
SYMBOL res 32 -944 R90
WINDOW 0 0 56 VBottom 2
WINDOW 3 32 56 VTop 2
SYMATTR InstName R9
SYMATTR Value 10k
SYMBOL cap 128 -944 R90
WINDOW 0 0 32 VBottom 2
WINDOW 3 32 32 VTop 2
SYMATTR InstName C9
SYMATTR Value 10n
SYMBOL Opamps\\opamp2 288 -976 R0
SYMATTR InstName U3
SYMATTR Value LM324
SYMBOL res 336 -1104 R90
WINDOW 0 0 56 VBottom 2
WINDOW 3 32 56 VTop 2
SYMATTR InstName R10
SYMATTR Value 75k
SYMBOL cap 272 -656 R0
SYMATTR InstName C10
SYMATTR Value 10n
SYMBOL cap -144 -992 R0
SYMATTR InstName C11
SYMATTR Value 10n
SYMBOL res -144 -1152 R0
SYMATTR InstName R13
SYMATTR Value 10k
SYMBOL diode 608 -896 R270
WINDOW 0 32 32 VTop 2
WINDOW 3 0 32 VBottom 2
SYMATTR InstName D1
SYMBOL res 720 -928 R0
SYMATTR InstName R8
SYMATTR Value 10k
SYMBOL cap 528 -928 R90
WINDOW 0 0 32 VBottom 2
WINDOW 3 32 32 VTop 2
SYMATTR InstName C7
SYMATTR Value .1µ
SYMBOL cap 864 -896 R0
SYMATTR InstName C8
SYMATTR Value .01µ
SYMBOL Opamps\\UniversalOpamp2 240 112 R0
SYMATTR InstName U1
SYMATTR Value2 Avol=1Meg GBW=3Meg Slew=2.4Meg
SYMATTR SpiceLine ilimit=7m rail=0 Vos=2m phimargin=45
SYMBOL res 304 -96 R90
WINDOW 0 0 56 VBottom 2
WINDOW 3 32 56 VTop 2
SYMATTR InstName R2
SYMATTR Value 50k
SYMBOL cap 64 80 R90
WINDOW 0 0 32 VBottom 2
WINDOW 3 32 32 VTop 2
SYMATTR InstName C1
SYMATTR Value 100n
SYMBOL Opamps\\UniversalOpamp2 720 96 R0
SYMATTR InstName U4
SYMATTR Value2 Avol=1Meg GBW=3Meg Slew=2.4Meg
SYMATTR SpiceLine ilimit=7m rail=0 Vos=2m phimargin=45
SYMBOL res 944 80 R90
WINDOW 0 0 56 VBottom 2
WINDOW 3 32 56 VTop 2
SYMATTR InstName R3
SYMATTR Value 3.9k
SYMBOL res 784 -48 R90
WINDOW 0 0 56 VBottom 2
WINDOW 3 32 56 VTop 2
SYMATTR InstName R4
SYMATTR Value 9k
SYMBOL res 496 -16 R270
WINDOW 0 32 56 VTop 2
WINDOW 3 0 56 VBottom 2
SYMATTR InstName R5
SYMATTR Value 1k
SYMBOL res 576 256 R180
WINDOW 0 36 76 Left 2
WINDOW 3 36 40 Left 2
SYMATTR InstName R11
SYMATTR Value 3.9k
SYMBOL cap 480 96 R90
WINDOW 0 0 32 VBottom 2
WINDOW 3 32 32 VTop 2
SYMATTR InstName C2
SYMATTR Value 1n
SYMBOL cap 992 144 R0
SYMATTR InstName C3
SYMATTR Value 1n
SYMBOL voltage -176 384 R0
WINDOW 123 24 124 Left 2
WINDOW 39 0 0 Left 0
SYMATTR InstName V1
SYMATTR Value ""
SYMATTR Value2 AC .01
SYMBOL res -864 -592 R90
WINDOW 0 0 56 VBottom 2
WINDOW 3 32 56 VTop 2
SYMATTR InstName R12
SYMATTR Value 2.2k
TEXT -992 -648 Left 2 !.lib LM324.ti.lib
TEXT -192 -136 Left 2 !.tran .001
TEXT -216 -1432 Left 2 !.step param Rx list 1 2
TEXT -224 -1376 Left 2 !.param var2 table(Rx,1,18k,2,75k)
TEXT -224 -1328 Left 2 !.param var1 table(Rx,1,2k2,2,6k2)
TEXT -1264 528 Left 2 !;ac dec 10 1000 100000
TEXT -264 -56 Left 2 !;op .001
